Circuit: * Z:\home\chesito\github\Out2\amp_filtrado.asc

Direct Newton iteration for .op point succeeded.

Date: Sun Apr 16 23:36:24 2017
Total elapsed time: 15.610 seconds.

tnom = 27
temp = 27
method = modified trap
totiter = 404435
traniter = 404429
tranpoints = 174625
accept = 117907
rejected = 56718
matrix size = 44
fillins = 24
solver = Normal
Matrix Compiler1: 4.35 KB object code size  3.7/3.0/[1.7]
Matrix Compiler2: off  [2.4]/3.2/4.0


