Circuit: * Z:\home\chesito\github\Out2\amp_filtrado.asc

Direct Newton iteration for .op point succeeded.

Date: Mon Apr 10 19:10:37 2017
Total elapsed time: 0.251 seconds.

tnom = 27
temp = 27
method = modified trap
totiter = 558
traniter = 552
tranpoints = 255
accept = 186
rejected = 69
matrix size = 44
fillins = 24
solver = Normal
Matrix Compiler1: 4.35 KB object code size  3.6/22.0/[1.7]
Matrix Compiler2: off  [2.2]/3.4/9.4


