Circuit: * Z:\home\chesito\github\Out2\amp_filtrado.asc

Direct Newton iteration for .op point succeeded.

Date: Mon May 01 19:14:06 2017
Total elapsed time: 0.256 seconds.

tnom = 27
temp = 27
method = trap
totiter = 6
traniter = 0
tranpoints = 0
accept = 0
rejected = 0
matrix size = 53
fillins = 32
solver = Normal
Matrix Compiler1:     312 opcodes
Matrix Compiler2: 5.26 KB object code size

