Circuit: * Z:\home\chesito\github\Out2\diferencial_RE1K_valorescomerciales.asc

Direct Newton iteration for .op point succeeded.

Date: Mon Apr 10 17:31:00 2017
Total elapsed time: 0.160 seconds.

tnom = 27
temp = 27
method = trap
totiter = 6
traniter = 0
tranpoints = 0
accept = 0
rejected = 0
matrix size = 30
fillins = 6
solver = Normal
Matrix Compiler1:     131 opcodes
Matrix Compiler2: 2.61 KB object code size

